/*--------------------------------*- C++ -*----------------------------------*\
| =========                 |                                                 |
| \\      /  F ield         | OpenFOAM: The Open Source CFD Toolbox           |
|  \\    /   O peration     | Version:  4.1                                   |
|   \\  /    A nd           | Web:      www.OpenFOAM.org                      |
|    \\/     M anipulation  |                                                 |
\*---------------------------------------------------------------------------*/
FoamFile
{
    version     2.0;
    format      ascii;
    class       extendedFeatureEdgeMesh;
    location    "constant/extendedFeatureEdgeMesh";
    object      yar1.extendedFeatureEdgeMesh;
}
// * * * * * * * * * * * * * * * * * * * * * * * * * * * * * * * * * * * * * //

// points
8((7.394999981 0 -13.25) (7.990499973 0.75 -13.25) (7.990499973 0 -13.25) (7.394999981 0.75 -13.25) (19.89599991 0 10.13500023) (19.89599991 0.75 10.13500023) (20.41600037 0 9.840999603) (20.41600037 0.75 9.840999603))
// edges

12
(
(1 2)
(2 0)
(0 3)
(3 1)
(0 4)
(4 5)
(5 3)
(4 6)
(6 7)
(7 5)
(1 7)
(6 2)
)

// concaveStart mixedStart nonFeatureStart
8 8 8
// internalStart flatStart openStart multipleStart
12 12 12 12
// normals

12
(
(0 0 -1)
(0.8806002479 0 -0.4738598984)
(0 -1 0)
(0 0 -1)
(-0.8818984218 0 0.4714394697)
(0 1 0)
(-0.8818984218 0 0.4714394697)
(0.4921680415 0 0.8705002119)
(-0 -1 0)
(0.4921680415 -0 0.8705002119)
(0.8806002479 0 -0.4738598984)
(0 1 0)
)

// normal volume types

12
(
0
0
0
0
0
0
0
0
0
0
0
0
)

// normalDirections

12
(
2(1 -1)
2(1 -1)
2(1 -1)
2(1 -1)
2(1 -1)
2(1 -1)
2(1 -1)
2(1 -1)
2(1 -1)
2(1 -1)
2(1 -1)
2(1 -1)
)

// edgeNormals

12
(
2(0 1)
2(0 2)
2(3 4)
2(3 5)
2(4 2)
2(6 7)
2(6 5)
2(7 8)
2(9 10)
2(9 11)
2(10 11)
2(1 8)
)

// featurePointNormals

8
(
3(0 2 4)
3(0 1 5)
3(0 1 2)
3(3 4 5)
3(4 2 7)
3(6 7 5)
3(7 8 10)
3(9 10 11)
)

// featurePointEdges

8
(
3(2 4 1)
3(3 10 0)
3(0 11 1)
3(2 6 3)
3(5 7 4)
3(5 9 6)
3(8 11 7)
3(8 10 9)
)

// regionEdges
0()


// ************************************************************************* //
