/*--------------------------------*- C++ -*----------------------------------*\
| =========                 |                                                 |
| \\      /  F ield         | OpenFOAM: The Open Source CFD Toolbox           |
|  \\    /   O peration     | Version:  4.1                                   |
|   \\  /    A nd           | Web:      www.OpenFOAM.org                      |
|    \\/     M anipulation  |                                                 |
\*---------------------------------------------------------------------------*/
FoamFile
{
    version     2.0;
    format      ascii;
    class       extendedFeatureEdgeMesh;
    location    "constant/extendedFeatureEdgeMesh";
    object      yar2.extendedFeatureEdgeMesh;
}
// * * * * * * * * * * * * * * * * * * * * * * * * * * * * * * * * * * * * * //

// points

16
(
(7.394999981 0 -13.25)
(-1 0 13.25)
(-1 0 -13.25)
(44 0 13.25)
(44 0 -13.25)
(7.990499973 0 -13.25)
(-1 0.75 -13.25)
(7.394999981 0.75 -13.25)
(7.990499973 0.75 -13.25)
(44 0.75 -13.25)
(44 0.75 13.25)
(-1 0.75 13.25)
(19.89599991 0 10.13500023)
(20.41600037 0 9.840999603)
(19.89599991 0.75 10.13500023)
(20.41600037 0.75 9.840999603)
)

// edges

24
(
(2 0)
(1 2)
(12 13)
(13 5)
(5 4)
(4 3)
(0 12)
(3 1)
(2 6)
(7 0)
(6 7)
(7 14)
(14 15)
(15 8)
(8 5)
(9 4)
(8 9)
(10 3)
(9 10)
(11 1)
(10 11)
(11 6)
(14 12)
(15 13)
)

// concaveStart mixedStart nonFeatureStart
12 12 16
// internalStart flatStart openStart multipleStart
22 24 24 24
// normals

28
(
(0 -1 0)
(0 0 -1)
(-1 0 0)
(0 -1 0)
(-0.4921680415 0 -0.8705002119)
(0 -1 0)
(-0.8806002479 0 0.4738598984)
(0 0 -1)
(0 -1 0)
(1 0 0)
(0 -1 0)
(0.8818984218 0 -0.4714394697)
(-0 -1 0)
(0 0 1)
(-1 0 0)
(0 0 -1)
(0 1 0)
(0.8818984218 0 -0.4714394697)
(0 1 -0)
(-0.4921680415 0 -0.8705002119)
(0 1 0)
(-0.8806002479 0 0.4738598984)
(0 1 0)
(0 0 -1)
(1 -0 0)
(0 1 -0)
(0 0 1)
(0 1 0)
)

// normal volume types

28
(
0
0
0
0
0
0
0
0
0
0
0
0
0
0
0
0
0
0
0
0
0
0
0
0
0
0
0
0
)

// normalDirections

24
(
2(1 -1)
2(1 -1)
2(1 -1)
2(1 -1)
2(1 -1)
2(1 -1)
2(1 -1)
2(1 -1)
2(1 -1)
2(1 -1)
2(1 -1)
2(1 -1)
2(1 -1)
2(1 -1)
2(1 -1)
2(1 -1)
2(1 -1)
2(1 -1)
2(1 -1)
2(1 -1)
2(1 -1)
2(1 -1)
2(1 -1)
2(1 -1)
)

// edgeNormals

24
(
2(0 1)
2(0 2)
2(3 4)
2(5 6)
2(5 7)
2(8 9)
2(10 11)
2(12 13)
2(1 14)
2(15 11)
2(15 16)
2(17 18)
2(19 20)
2(21 22)
2(6 7)
2(23 9)
2(23 22)
2(24 13)
2(24 25)
2(26 2)
2(26 27)
2(14 16)
2(17 4)
2(19 21)
)

// featurePointNormals

16
(
3(0 1 11)
3(0 2 13)
3(0 1 2)
3(8 9 13)
3(5 7 9)
3(5 6 7)
3(1 14 16)
3(15 11 16)
3(21 22 7)
3(23 9 22)
3(24 13 25)
3(26 2 27)
3(3 4 11)
3(3 4 6)
3(17 18 19)
3(19 20 21)
)

// featurePointEdges

16
(
3(6 9 0)
3(7 19 1)
3(0 8 1)
3(5 17 7)
3(5 15 4)
3(3 14 4)
3(10 21 8)
3(9 11 10)
3(14 16 13)
3(15 18 16)
3(17 20 18)
3(19 21 20)
3(6 22 2)
3(3 23 2)
3(22 12 11)
3(23 13 12)
)

// regionEdges
0()


// ************************************************************************* //
